Circuit: * C:\users\chesito\Mis Documentos\Documentos\potencia\lab1\diodo_conmutacion.asc

.OP point found by inspection.

Date: Tue Aug 08 22:16:11 2017
Total elapsed time: 0.155 seconds.

tnom = 27
temp = 27
method = modified trap
totiter = 1567
traniter = 1567
tranpoints = 536
accept = 373
rejected = 163
matrix size = 4
fillins = 0
solver = Normal
Matrix Compiler1: 118 bytes object code size  0.6/0.6/[0.5]
Matrix Compiler2: 242 bytes object code size  0.7/0.6/[0.6]

