Circuit: * C:\users\chesito\Mis Documentos\Documentos\potencia\lab1\diodo_conmutacion.asc

.OP point found by inspection.

Date: Sun Aug 13 21:18:10 2017
Total elapsed time: 0.562 seconds.

tnom = 27
temp = 27
method = modified trap
totiter = 7034
traniter = 7034
tranpoints = 3518
accept = 3518
rejected = 0
matrix size = 4
fillins = 0
solver = Normal
Matrix Compiler1: 118 bytes object code size  1.1/1.1/[1.0]
Matrix Compiler2: 242 bytes object code size  1.2/1.3/[1.1]

