Circuit: * C:\users\chesito\Mis Documentos\Documentos\potencia\lab1\diodo2_conmutacion.asc

.OP point found by inspection.

Date: Sun Aug 13 22:20:07 2017
Total elapsed time: 0.416 seconds.

tnom = 27
temp = 27
method = modified trap
totiter = 7034
traniter = 7034
tranpoints = 3518
accept = 3518
rejected = 0
matrix size = 4
fillins = 0
solver = Normal
Matrix Compiler1: 118 bytes object code size  0.7/0.6/[0.6]
Matrix Compiler2: 242 bytes object code size  0.8/0.9/[0.7]

