Circuit: * C:\users\chesito\Mis Documentos\Documentos\potencia\lab1\diodo2_conmutacion.asc

.OP point found by inspection.

Date: Tue Aug 08 23:23:47 2017
Total elapsed time: 0.237 seconds.

tnom = 27
temp = 27
method = modified trap
totiter = 469
traniter = 469
tranpoints = 155
accept = 110
rejected = 45
matrix size = 4
fillins = 0
solver = Normal
Matrix Compiler1: 118 bytes object code size  0.7/0.7/[0.6]
Matrix Compiler2: 242 bytes object code size  0.8/0.8/[0.7]

