Circuit: * C:\users\chesito\Mis Documentos\Documentos\potencia\lab1\diodo_conmutacion.asc

.OP point found by inspection.

Date: Tue Aug 08 23:14:29 2017
Total elapsed time: 0.243 seconds.

tnom = 27
temp = 27
method = modified trap
totiter = 2034
traniter = 2034
tranpoints = 1018
accept = 1018
rejected = 0
matrix size = 4
fillins = 0
solver = Normal
Matrix Compiler1: 118 bytes object code size  0.6/0.6/[0.5]
Matrix Compiler2: 242 bytes object code size  0.6/0.7/[0.6]

