Circuit: * C:\users\chesito\Mis Documentos\Documentos\potencia\lab1\Draft1.asc

.OP point found by inspection.

Date: Sat Aug 12 23:19:00 2017
Total elapsed time: 0.276 seconds.

tnom = 27
temp = 27
method = modified trap
totiter = 4242
traniter = 4242
tranpoints = 2122
accept = 1418
rejected = 704
matrix size = 2
fillins = 0
solver = Normal
Matrix Compiler1: 54 bytes object code size  0.6/5.7/[0.6]
Matrix Compiler2: 116 bytes object code size  0.6/0.8/[0.6]

